  0
SECTION
  2
ENTITIES
999
DXF created from EnergyPlus
999
Program Version,EnergyPlus, Version 9.4.0-998c4b761e, YMD=2022.04.21 13:51
999
Polygon Action,TRIANGULATE3DFACE
999
Color Scheme,Default
999
Text - True North
  0
TEXT
  8
1
  6
Continuous
 62
  3
 10
      -10.62020
 20
       -4.04618
 30
        0.10000
 40
 .25
  1
True North
 41
 0.0
  7
MONOTXT
210
0.0
220
0.0
230
1.0
999
Text - Building Title
  0
TEXT
  8
1
  6
Continuous
 62
  3
 10
      -13.62020
 20
       -8.04618
 30
        0.10000
 40
 .4
  1
Building - Building
 41
 0.0
  7
MONOTXT
210
0.0
220
0.0
230
1.0
999
North Arrow Stem
  0
3DFACE
  8
1
 62
  3
 10
       -9.62020
 20
       -4.04618
 30
        0.10000
 11
       -9.62020
 21
       -4.04618
 31
        0.00000
 12
       -9.62020
 22
       -7.04618
 32
        0.00000
 13
       -9.62020
 23
       -7.04618
 33
        0.10000
999
North Arrow Head 1
  0
3DFACE
  8
1
 62
  3
 10
       -9.62020
 20
       -4.04618
 30
        0.10000
 11
       -9.62020
 21
       -4.04618
 31
        0.00000
 12
      -10.12020
 22
       -4.91220
 32
        0.00000
 13
      -10.12020
 23
       -4.91220
 33
        0.10000
999
North Arrow Head 2
  0
3DFACE
  8
1
 62
  3
 10
       -9.62020
 20
       -4.04618
 30
        0.10000
 11
       -9.62020
 21
       -4.04618
 31
        0.00000
 12
       -9.12020
 22
       -4.91220
 32
        0.00000
 13
       -9.12020
 23
       -4.91220
 33
        0.10000
999
North Arrow Side 1
  0
3DFACE
  8
1
 62
  3
 10
      -10.12020
 20
       -2.54618
 30
        0.10000
 11
      -10.12020
 21
       -2.54618
 31
        0.00000
 12
      -10.12020
 22
       -3.54618
 32
        0.00000
 13
      -10.12020
 23
       -3.54618
 33
        0.10000
999
North Arrow Side 2
  0
3DFACE
  8
1
 62
  3
 10
      -10.12020
 20
       -2.54618
 30
        0.10000
 11
      -10.12020
 21
       -2.54618
 31
        0.00000
 12
       -9.12020
 22
       -3.54618
 32
        0.00000
 13
       -9.12020
 23
       -3.54618
 33
        0.10000
999
North Arrow Side 3
  0
3DFACE
  8
1
 62
  3
 10
       -9.12020
 20
       -2.54618
 30
        0.10000
 11
       -9.12020
 21
       -2.54618
 31
        0.00000
 12
       -9.12020
 22
       -3.54618
 32
        0.00000
 13
       -9.12020
 23
       -3.54618
 33
        0.10000
999
Zone Names
999
Zone=1:CELLS_ROOMX1
999
Zone=2:CELLS_ENTRANCE
999
Zone=3:CELLS_ROOMX2
999
Building Shading:EPFL_CELLS - COMPONENT BLOCK 1 - SURFACE 1 (1)
  0
3DFACE
  8
Building Shading
 62
195
 10
        3.21980
 20
       -7.04618
 30
        4.24000
 11
        3.21980
 21
       -6.66618
 31
        4.24000
 12
        0.59980
 22
       -6.66618
 32
        4.24000
 13
        0.59980
 23
       -7.04618
 33
        4.24000
999
Building Shading:Mir-EPFL_CELLS - COMPONENT BLOCK 1 - SURFACE 1 (1)
  0
3DFACE
  8
Building Shading
 62
195
 10
        0.59980
 20
       -7.04618
 30
        4.24000
 11
        0.59980
 21
       -6.66618
 31
        4.24000
 12
        3.21980
 22
       -6.66618
 32
        4.24000
 13
        3.21980
 23
       -7.04618
 33
        4.24000
999
Building Shading:EPFL_CELLS - COMPONENT BLOCK 2 - SURFACE 1 (2)
  0
3DFACE
  8
Building Shading
 62
195
 10
        0.59980
 20
       -7.04618
 30
        4.19000
 11
        0.59980
 21
       -7.04618
 31
        2.36000
 12
        0.59980
 22
       -6.66618
 32
        2.36000
 13
        0.59980
 23
       -6.66618
 33
        4.19000
999
Building Shading:Mir-EPFL_CELLS - COMPONENT BLOCK 2 - SURFACE 1 (2)
  0
3DFACE
  8
Building Shading
 62
195
 10
        0.59980
 20
       -6.66618
 30
        4.19000
 11
        0.59980
 21
       -6.66618
 31
        2.36000
 12
        0.59980
 22
       -7.04618
 32
        2.36000
 13
        0.59980
 23
       -7.04618
 33
        4.19000
999
Building Shading:EPFL_CELLS - COMPONENT BLOCK 3 - SURFACE 1 (3)
  0
3DFACE
  8
Building Shading
 62
195
 10
        3.16980
 20
       -7.04618
 30
        4.19000
 11
        3.16980
 21
       -7.04618
 31
        2.36000
 12
        3.16980
 22
       -6.66618
 32
        2.36000
 13
        3.16980
 23
       -6.66618
 33
        4.19000
999
Building Shading:Mir-EPFL_CELLS - COMPONENT BLOCK 3 - SURFACE 1 (3)
  0
3DFACE
  8
Building Shading
 62
195
 10
        3.16980
 20
       -6.66618
 30
        4.19000
 11
        3.16980
 21
       -6.66618
 31
        2.36000
 12
        3.16980
 22
       -7.04618
 32
        2.36000
 13
        3.16980
 23
       -7.04618
 33
        4.19000
999
Building Shading:EPFL_CELLS - COMPONENT BLOCK 4 - SURFACE 1 (4)
  0
3DFACE
  8
Building Shading
 62
195
 10
        3.21980
 20
       -7.04618
 30
        2.36000
 11
        3.21980
 21
       -6.66618
 31
        2.36000
 12
        0.59980
 22
       -6.66618
 32
        2.36000
 13
        0.59980
 23
       -7.04618
 33
        2.36000
999
Building Shading:Mir-EPFL_CELLS - COMPONENT BLOCK 4 - SURFACE 1 (4)
  0
3DFACE
  8
Building Shading
 62
195
 10
        0.59980
 20
       -7.04618
 30
        2.36000
 11
        0.59980
 21
       -6.66618
 31
        2.36000
 12
        3.21980
 22
       -6.66618
 32
        2.36000
 13
        3.21980
 23
       -7.04618
 33
        2.36000
999
Building Shading:EPFL_CELLS - COMPONENT BLOCK 5 - SURFACE 1 (5)
  0
3DFACE
  8
Building Shading
 62
195
 10
        8.83980
 20
       -7.04618
 30
        4.24000
 11
        8.83980
 21
       -6.66618
 31
        4.24000
 12
        6.21980
 22
       -6.66618
 32
        4.24000
 13
        6.21980
 23
       -7.04618
 33
        4.24000
999
Building Shading:Mir-EPFL_CELLS - COMPONENT BLOCK 5 - SURFACE 1 (5)
  0
3DFACE
  8
Building Shading
 62
195
 10
        6.21980
 20
       -7.04618
 30
        4.24000
 11
        6.21980
 21
       -6.66618
 31
        4.24000
 12
        8.83980
 22
       -6.66618
 32
        4.24000
 13
        8.83980
 23
       -7.04618
 33
        4.24000
999
Building Shading:EPFL_CELLS - COMPONENT BLOCK 6 - SURFACE 1 (6)
  0
3DFACE
  8
Building Shading
 62
195
 10
        6.21980
 20
       -7.04618
 30
        4.19000
 11
        6.21980
 21
       -7.04618
 31
        2.36000
 12
        6.21980
 22
       -6.66618
 32
        2.36000
 13
        6.21980
 23
       -6.66618
 33
        4.19000
999
Building Shading:Mir-EPFL_CELLS - COMPONENT BLOCK 6 - SURFACE 1 (6)
  0
3DFACE
  8
Building Shading
 62
195
 10
        6.21980
 20
       -6.66618
 30
        4.19000
 11
        6.21980
 21
       -6.66618
 31
        2.36000
 12
        6.21980
 22
       -7.04618
 32
        2.36000
 13
        6.21980
 23
       -7.04618
 33
        4.19000
999
Building Shading:EPFL_CELLS - COMPONENT BLOCK 7 - SURFACE 1 (7)
  0
3DFACE
  8
Building Shading
 62
195
 10
        8.78980
 20
       -7.04618
 30
        4.19000
 11
        8.78980
 21
       -7.04618
 31
        2.36000
 12
        8.78980
 22
       -6.66618
 32
        2.36000
 13
        8.78980
 23
       -6.66618
 33
        4.19000
999
Building Shading:Mir-EPFL_CELLS - COMPONENT BLOCK 7 - SURFACE 1 (7)
  0
3DFACE
  8
Building Shading
 62
195
 10
        8.78980
 20
       -6.66618
 30
        4.19000
 11
        8.78980
 21
       -6.66618
 31
        2.36000
 12
        8.78980
 22
       -7.04618
 32
        2.36000
 13
        8.78980
 23
       -7.04618
 33
        4.19000
999
Building Shading:EPFL_CELLS - COMPONENT BLOCK 8 - SURFACE 1 (8)
  0
3DFACE
  8
Building Shading
 62
195
 10
        8.83980
 20
       -7.04618
 30
        2.36000
 11
        8.83980
 21
       -6.66618
 31
        2.36000
 12
        6.21980
 22
       -6.66618
 32
        2.36000
 13
        6.21980
 23
       -7.04618
 33
        2.36000
999
Building Shading:Mir-EPFL_CELLS - COMPONENT BLOCK 8 - SURFACE 1 (8)
  0
3DFACE
  8
Building Shading
 62
195
 10
        6.21980
 20
       -7.04618
 30
        2.36000
 11
        6.21980
 21
       -6.66618
 31
        2.36000
 12
        8.83980
 22
       -6.66618
 32
        2.36000
 13
        8.83980
 23
       -7.04618
 33
        2.36000
999
Building Shading:EPFL_CELLS - COMPONENT BLOCK 9 - SURFACE 1 (9)
  0
3DFACE
  8
Building Shading
 62
195
 10
        3.21980
 20
       -0.47618
 30
        4.24000
 11
        3.21980
 21
       -0.09618
 31
        4.24000
 12
        0.59980
 22
       -0.09618
 32
        4.24000
 13
        0.59980
 23
       -0.47618
 33
        4.24000
999
Building Shading:Mir-EPFL_CELLS - COMPONENT BLOCK 9 - SURFACE 1 (9)
  0
3DFACE
  8
Building Shading
 62
195
 10
        0.59980
 20
       -0.47618
 30
        4.24000
 11
        0.59980
 21
       -0.09618
 31
        4.24000
 12
        3.21980
 22
       -0.09618
 32
        4.24000
 13
        3.21980
 23
       -0.47618
 33
        4.24000
999
Building Shading:EPFL_CELLS - COMPONENT BLOCK 10 - SURFACE 1 (10)
  0
3DFACE
  8
Building Shading
 62
195
 10
        0.64980
 20
       -0.09618
 30
        4.19000
 11
        0.64980
 21
       -0.09618
 31
        2.36000
 12
        0.64980
 22
       -0.47618
 32
        2.36000
 13
        0.64980
 23
       -0.47618
 33
        4.19000
999
Building Shading:Mir-EPFL_CELLS - COMPONENT BLOCK 10 - SURFACE 1 (10)
  0
3DFACE
  8
Building Shading
 62
195
 10
        0.64980
 20
       -0.47618
 30
        4.19000
 11
        0.64980
 21
       -0.47618
 31
        2.36000
 12
        0.64980
 22
       -0.09618
 32
        2.36000
 13
        0.64980
 23
       -0.09618
 33
        4.19000
999
Building Shading:EPFL_CELLS - COMPONENT BLOCK 11 - SURFACE 1 (11)
  0
3DFACE
  8
Building Shading
 62
195
 10
        3.16980
 20
       -0.47618
 30
        4.19000
 11
        3.16980
 21
       -0.47618
 31
        2.36000
 12
        3.16980
 22
       -0.09618
 32
        2.36000
 13
        3.16980
 23
       -0.09618
 33
        4.19000
999
Building Shading:Mir-EPFL_CELLS - COMPONENT BLOCK 11 - SURFACE 1 (11)
  0
3DFACE
  8
Building Shading
 62
195
 10
        3.16980
 20
       -0.09618
 30
        4.19000
 11
        3.16980
 21
       -0.09618
 31
        2.36000
 12
        3.16980
 22
       -0.47618
 32
        2.36000
 13
        3.16980
 23
       -0.47618
 33
        4.19000
999
Building Shading:EPFL_CELLS - COMPONENT BLOCK 12 - SURFACE 1 (12)
  0
3DFACE
  8
Building Shading
 62
195
 10
        3.21980
 20
       -0.47618
 30
        2.36000
 11
        3.21980
 21
       -0.09618
 31
        2.36000
 12
        0.59980
 22
       -0.09618
 32
        2.36000
 13
        0.59980
 23
       -0.47618
 33
        2.36000
999
Building Shading:Mir-EPFL_CELLS - COMPONENT BLOCK 12 - SURFACE 1 (12)
  0
3DFACE
  8
Building Shading
 62
195
 10
        0.59980
 20
       -0.47618
 30
        2.36000
 11
        0.59980
 21
       -0.09618
 31
        2.36000
 12
        3.21980
 22
       -0.09618
 32
        2.36000
 13
        3.21980
 23
       -0.47618
 33
        2.36000
999
Building Shading:EPFL_CELLS - COMPONENT BLOCK 13 - SURFACE 1 (13)
  0
3DFACE
  8
Building Shading
 62
195
 10
        6.21980
 20
       -0.09618
 30
        4.24000
 11
        6.21980
 21
       -0.47618
 31
        4.24000
 12
        8.83980
 22
       -0.47618
 32
        4.24000
 13
        8.83980
 23
       -0.09618
 33
        4.24000
999
Building Shading:Mir-EPFL_CELLS - COMPONENT BLOCK 13 - SURFACE 1 (13)
  0
3DFACE
  8
Building Shading
 62
195
 10
        8.83980
 20
       -0.09618
 30
        4.24000
 11
        8.83980
 21
       -0.47618
 31
        4.24000
 12
        6.21980
 22
       -0.47618
 32
        4.24000
 13
        6.21980
 23
       -0.09618
 33
        4.24000
999
Building Shading:EPFL_CELLS - COMPONENT BLOCK 14 - SURFACE 1 (14)
  0
3DFACE
  8
Building Shading
 62
195
 10
        6.21980
 20
       -0.47618
 30
        4.19000
 11
        6.21980
 21
       -0.47618
 31
        2.36000
 12
        6.21980
 22
       -0.09618
 32
        2.36000
 13
        6.21980
 23
       -0.09618
 33
        4.19000
999
Building Shading:Mir-EPFL_CELLS - COMPONENT BLOCK 14 - SURFACE 1 (14)
  0
3DFACE
  8
Building Shading
 62
195
 10
        6.21980
 20
       -0.09618
 30
        4.19000
 11
        6.21980
 21
       -0.09618
 31
        2.36000
 12
        6.21980
 22
       -0.47618
 32
        2.36000
 13
        6.21980
 23
       -0.47618
 33
        4.19000
999
Building Shading:EPFL_CELLS - COMPONENT BLOCK 15 - SURFACE 1 (15)
  0
3DFACE
  8
Building Shading
 62
195
 10
        8.78980
 20
       -0.47618
 30
        4.19000
 11
        8.78980
 21
       -0.47618
 31
        2.36000
 12
        8.78980
 22
       -0.09618
 32
        2.36000
 13
        8.78980
 23
       -0.09618
 33
        4.19000
999
Building Shading:Mir-EPFL_CELLS - COMPONENT BLOCK 15 - SURFACE 1 (15)
  0
3DFACE
  8
Building Shading
 62
195
 10
        8.78980
 20
       -0.09618
 30
        4.19000
 11
        8.78980
 21
       -0.09618
 31
        2.36000
 12
        8.78980
 22
       -0.47618
 32
        2.36000
 13
        8.78980
 23
       -0.47618
 33
        4.19000
999
Building Shading:EPFL_CELLS - COMPONENT BLOCK 16 - SURFACE 1 (16)
  0
3DFACE
  8
Building Shading
 62
195
 10
        6.21980
 20
       -0.09618
 30
        2.36000
 11
        6.21980
 21
       -0.47618
 31
        2.36000
 12
        8.83980
 22
       -0.47618
 32
        2.36000
 13
        8.83980
 23
       -0.09618
 33
        2.36000
999
Building Shading:Mir-EPFL_CELLS - COMPONENT BLOCK 16 - SURFACE 1 (16)
  0
3DFACE
  8
Building Shading
 62
195
 10
        8.83980
 20
       -0.09618
 30
        2.36000
 11
        8.83980
 21
       -0.47618
 31
        2.36000
 12
        6.21980
 22
       -0.47618
 32
        2.36000
 13
        6.21980
 23
       -0.09618
 33
        2.36000
999
CELLS:ROOMX1:CELLS:ROOMX1_PARTITION_2_0_0
  0
3DFACE
  8
CELLS_ROOMX1
 62
 43
 10
        3.44532
 20
       -6.66618
 30
        4.50000
 11
        3.44532
 21
       -6.66618
 31
        1.40000
 12
        3.44532
 22
       -0.47618
 32
        1.40000
 13
        3.44532
 23
       -0.47618
 33
        4.50000
999
CELLS:ROOMX1:CELLS:ROOMX1_WALL_3_0_0
  0
3DFACE
  8
CELLS_ROOMX1
 62
 43
 10
        3.44532
 20
       -0.47618
 30
        4.50000
 11
        3.44532
 21
       -0.47618
 31
        1.40000
 12
        0.37980
 22
       -0.47618
 32
        1.40000
 13
        0.37980
 23
       -0.47618
 33
        4.50000
999
CELLS:ROOMX1:CELLS:ROOMX1_WALL_3_0_0_0_0_1_WIN
  0
3DFACE
  8
CELLS_ROOMX1
 62
143
 10
        1.29780
 20
       -0.47618
 30
        4.14800
 11
        1.29780
 21
       -0.47618
 31
        2.40200
 12
        0.69180
 22
       -0.47618
 32
        2.40200
 13
        0.69180
 23
       -0.47618
 33
        4.14800
999
CELLS:ROOMX1:CELLS:ROOMX1_WALL_3_0_0_1_0_0_WIN
  0
3DFACE
  8
CELLS_ROOMX1
 62
143
 10
        3.12780
 20
       -0.47618
 30
        4.14800
 11
        3.12780
 21
       -0.47618
 31
        2.40200
 12
        1.38180
 22
       -0.47618
 32
        2.40200
 13
        1.38180
 23
       -0.47618
 33
        4.14800
999
CELLS:ROOMX1:CELLS:ROOMX1_WALL_4_0_0
  0
3DFACE
  8
CELLS_ROOMX1
 62
 43
 10
        0.37980
 20
       -0.47618
 30
        4.50000
 11
        0.37980
 21
       -0.47618
 31
        1.40000
 12
        0.37980
 22
       -6.66618
 32
        1.40000
 13
        0.37980
 23
       -6.66618
 33
        4.50000
999
CELLS:ROOMX1:CELLS:ROOMX1_WALL_5_0_0
  0
3DFACE
  8
CELLS_ROOMX1
 62
 43
 10
        0.37980
 20
       -6.66618
 30
        4.50000
 11
        0.37980
 21
       -6.66618
 31
        1.40000
 12
        3.44532
 22
       -6.66618
 32
        1.40000
 13
        3.44532
 23
       -6.66618
 33
        4.50000
999
CELLS:ROOMX1:CELLS:ROOMX1_WALL_5_0_0_0_0_1_WIN
  0
3DFACE
  8
CELLS_ROOMX1
 62
143
 10
        2.52180
 20
       -6.66618
 30
        4.14800
 11
        2.52180
 21
       -6.66618
 31
        2.40200
 12
        3.12780
 22
       -6.66618
 32
        2.40200
 13
        3.12780
 23
       -6.66618
 33
        4.14800
999
CELLS:ROOMX1:CELLS:ROOMX1_WALL_5_0_0_1_0_0_WIN
  0
3DFACE
  8
CELLS_ROOMX1
 62
143
 10
        0.69180
 20
       -6.66618
 30
        4.14800
 11
        0.69180
 21
       -6.66618
 31
        2.40200
 12
        2.43780
 22
       -6.66618
 32
        2.40200
 13
        2.43780
 23
       -6.66618
 33
        4.14800
999
CELLS:ROOMX1:CELLS:ROOMX1_EXTFLOOR_0_0_0
  0
3DFACE
  8
CELLS_ROOMX1
 62
  8
 10
        3.44532
 20
       -0.47618
 30
        1.40000
 11
        3.44532
 21
       -6.66618
 31
        1.40000
 12
        0.37980
 22
       -6.66618
 32
        1.40000
 13
        0.37980
 23
       -0.47618
 33
        1.40000
999
CELLS:ROOMX1:CELLS:ROOMX1_ROOF_1_0_0
  0
3DFACE
  8
CELLS_ROOMX1
 62
 15
 10
        0.37980
 20
       -0.47618
 30
        4.50000
 11
        0.37980
 21
       -6.66618
 31
        4.50000
 12
        3.44532
 22
       -6.66618
 32
        4.50000
 13
        3.44532
 23
       -0.47618
 33
        4.50000
999
CELLS:ENTRANCE:CELLS:ENTRANCE_PARTITION_4_0_10000
  0
3DFACE
  8
CELLS_ENTRANCE
 62
 43
 10
        3.44532
 20
       -0.47618
 30
        4.50000
 11
        3.44532
 21
       -0.47618
 31
        1.40000
 12
        3.44532
 22
       -6.66618
 32
        1.40000
 13
        3.44532
 23
       -6.66618
 33
        4.50000
999
CELLS:ENTRANCE:CELLS:ENTRANCE_PARTITION_2_0_0
  0
3DFACE
  8
CELLS_ENTRANCE
 62
 43
 10
        5.86310
 20
       -6.66618
 30
        4.50000
 11
        5.86310
 21
       -6.66618
 31
        1.40000
 12
        5.86310
 22
       -0.47618
 32
        1.40000
 13
        5.86310
 23
       -0.47618
 33
        4.50000
999
CELLS:ENTRANCE:CELLS:ENTRANCE_WALL_3_0_0
  0
3DFACE
  8
CELLS_ENTRANCE
 62
 43
 10
        5.86310
 20
       -0.47618
 30
        4.50000
 11
        5.86310
 21
       -0.47618
 31
        1.40000
 12
        3.44532
 22
       -0.47618
 32
        1.40000
 13
        3.44532
 23
       -0.47618
 33
        4.50000
999
CELLS:ENTRANCE:CELLS:ENTRANCE_WALL_5_0_0
  0
3DFACE
  8
CELLS_ENTRANCE
 62
 43
 10
        3.44532
 20
       -6.66618
 30
        4.50000
 11
        3.44532
 21
       -6.66618
 31
        1.40000
 12
        5.86310
 22
       -6.66618
 32
        1.40000
 13
        5.86310
 23
       -6.66618
 33
        4.50000
999
CELLS:ENTRANCE:CELLS:ENTRANCE_WALL_5_0_0_0_0_0_DOOR
  0
3DFACE
  8
CELLS_ENTRANCE
 62
 45
 10
        4.09554
 20
       -6.66618
 30
        3.39800
 11
        4.09554
 21
       -6.66618
 31
        1.40200
 12
        5.09154
 22
       -6.66618
 32
        1.40200
 13
        5.09154
 23
       -6.66618
 33
        3.39800
999
CELLS:ENTRANCE:CELLS:ENTRANCE_EXTFLOOR_0_0_0
  0
3DFACE
  8
CELLS_ENTRANCE
 62
  8
 10
        5.86310
 20
       -0.47618
 30
        1.40000
 11
        5.86310
 21
       -6.66618
 31
        1.40000
 12
        3.44532
 22
       -6.66618
 32
        1.40000
 13
        3.44532
 23
       -0.47618
 33
        1.40000
999
CELLS:ENTRANCE:CELLS:ENTRANCE_ROOF_1_0_0
  0
3DFACE
  8
CELLS_ENTRANCE
 62
 15
 10
        3.44532
 20
       -0.47618
 30
        4.50000
 11
        3.44532
 21
       -6.66618
 31
        4.50000
 12
        5.86310
 22
       -6.66618
 32
        4.50000
 13
        5.86310
 23
       -0.47618
 33
        4.50000
999
CELLS:ROOMX2:CELLS:ROOMX2_PARTITION_4_0_10001
  0
3DFACE
  8
CELLS_ROOMX2
 62
 43
 10
        5.86310
 20
       -0.47618
 30
        4.50000
 11
        5.86310
 21
       -0.47618
 31
        1.40000
 12
        5.86310
 22
       -6.66618
 32
        1.40000
 13
        5.86310
 23
       -6.66618
 33
        4.50000
999
CELLS:ROOMX2:CELLS:ROOMX2_WALL_2_0_0
  0
3DFACE
  8
CELLS_ROOMX2
 62
 43
 10
        9.08980
 20
       -6.66618
 30
        4.50000
 11
        9.08980
 21
       -6.66618
 31
        1.40000
 12
        9.08980
 22
       -0.47618
 32
        1.40000
 13
        9.08980
 23
       -0.47618
 33
        4.50000
999
CELLS:ROOMX2:CELLS:ROOMX2_WALL_3_0_0
  0
3DFACE
  8
CELLS_ROOMX2
 62
 43
 10
        9.08980
 20
       -0.47618
 30
        4.50000
 11
        9.08980
 21
       -0.47618
 31
        1.40000
 12
        5.86310
 22
       -0.47618
 32
        1.40000
 13
        5.86310
 23
       -0.47618
 33
        4.50000
999
CELLS:ROOMX2:CELLS:ROOMX2_WALL_3_0_0_0_0_1_WIN
  0
3DFACE
  8
CELLS_ROOMX2
 62
143
 10
        6.91780
 20
       -0.47618
 30
        4.14800
 11
        6.91780
 21
       -0.47618
 31
        2.40200
 12
        6.31180
 22
       -0.47618
 32
        2.40200
 13
        6.31180
 23
       -0.47618
 33
        4.14800
999
CELLS:ROOMX2:CELLS:ROOMX2_WALL_3_0_0_1_0_0_WIN
  0
3DFACE
  8
CELLS_ROOMX2
 62
143
 10
        8.74780
 20
       -0.47618
 30
        4.14800
 11
        8.74780
 21
       -0.47618
 31
        2.40200
 12
        7.00180
 22
       -0.47618
 32
        2.40200
 13
        7.00180
 23
       -0.47618
 33
        4.14800
999
CELLS:ROOMX2:CELLS:ROOMX2_WALL_5_0_0
  0
3DFACE
  8
CELLS_ROOMX2
 62
 43
 10
        5.86310
 20
       -6.66618
 30
        4.50000
 11
        5.86310
 21
       -6.66618
 31
        1.40000
 12
        9.08980
 22
       -6.66618
 32
        1.40000
 13
        9.08980
 23
       -6.66618
 33
        4.50000
999
CELLS:ROOMX2:CELLS:ROOMX2_WALL_5_0_0_0_0_1_WIN
  0
3DFACE
  8
CELLS_ROOMX2
 62
143
 10
        8.14180
 20
       -6.66618
 30
        4.14800
 11
        8.14180
 21
       -6.66618
 31
        2.40200
 12
        8.74780
 22
       -6.66618
 32
        2.40200
 13
        8.74780
 23
       -6.66618
 33
        4.14800
999
CELLS:ROOMX2:CELLS:ROOMX2_WALL_5_0_0_1_0_0_WIN
  0
3DFACE
  8
CELLS_ROOMX2
 62
143
 10
        6.31180
 20
       -6.66618
 30
        4.14800
 11
        6.31180
 21
       -6.66618
 31
        2.40200
 12
        8.05780
 22
       -6.66618
 32
        2.40200
 13
        8.05780
 23
       -6.66618
 33
        4.14800
999
CELLS:ROOMX2:CELLS:ROOMX2_EXTFLOOR_0_0_0
  0
3DFACE
  8
CELLS_ROOMX2
 62
  8
 10
        9.08980
 20
       -0.47618
 30
        1.40000
 11
        9.08980
 21
       -6.66618
 31
        1.40000
 12
        5.86310
 22
       -6.66618
 32
        1.40000
 13
        5.86310
 23
       -0.47618
 33
        1.40000
999
CELLS:ROOMX2:CELLS:ROOMX2_ROOF_1_0_0
  0
3DFACE
  8
CELLS_ROOMX2
 62
 15
 10
        5.86310
 20
       -0.47618
 30
        4.50000
 11
        5.86310
 21
       -6.66618
 31
        4.50000
 12
        9.08980
 22
       -6.66618
 32
        4.50000
 13
        9.08980
 23
       -0.47618
 33
        4.50000
999
CELLS:ROOMX1:DayRefPt:1
  0
CIRCLE
  8
CELLS_ROOMX1
 62
 10
 10
        1.91300
 20
       -3.57100
 30
        2.20000
 40
        0.20000
999
CELLS:ENTRANCE:DayRefPt:1
  0
CIRCLE
  8
CELLS_ENTRANCE
 62
 10
 10
        4.65400
 20
       -3.57100
 30
        2.20000
 40
        0.20000
999
CELLS:ROOMX2:DayRefPt:1
  0
CIRCLE
  8
CELLS_ROOMX2
 62
 10
 10
        7.47600
 20
       -3.57100
 30
        2.20000
 40
        0.20000
999
CELLS:ROOMX1:DEDayRefPt:1
  0
CIRCLE
  8
CELLS_ROOMX1
 62
 10
 10
        1.91300
 20
       -3.57100
 30
        2.20000
 40
        0.20000
999
CELLS:ENTRANCE:DEDayRefPt:1
  0
CIRCLE
  8
CELLS_ENTRANCE
 62
 10
 10
        4.65400
 20
       -3.57100
 30
        2.20000
 40
        0.20000
999
CELLS:ROOMX2:DEDayRefPt:1
  0
CIRCLE
  8
CELLS_ROOMX2
 62
 10
 10
        7.47600
 20
       -3.57100
 30
        2.20000
 40
        0.20000
  0
ENDSEC
  0
EOF
